[General]
network = DedicatedServerNetwork
sim-time-limit = 50s
*.n=10