[General]
network = p2p_sim_project.P2PMatchmaking
*.numPeers = 10


sim-time-limit = 10s

**.peer[*].elo = intuniform(800, 1200)  
